!-Generator IDFEditor 1.48
!-Option SortedOrder UseSpecialFormat
!-NOTE: All comments with '!-' are ignored by the IDFEditor and are generated automatically.
!-      Use '!' comments if they need to be retained when using the IDFEditor.
!-   ===========  ALL OBJECTS IN CLASS: VERSION ===========

  Version,8.8;

!-   ===========  ALL OBJECTS IN CLASS: SIMULATIONCONTROL ===========

  SimulationControl,
    No,                      !- Do Zone Sizing Calculation
    No,                      !- Do System Sizing Calculation
    No,                      !- Do Plant Sizing Calculation
    No,                      !- Run Simulation for Sizing Periods
    Yes,                     !- Run Simulation for Weather File Run Periods
    No,                      !- Do HVAC Sizing Simulation for Sizing Periods
    1;                       !- Maximum Number of HVAC Sizing Simulation Passes

!-   ===========  ALL OBJECTS IN CLASS: BUILDING ===========

  Building,
    Test,                    !- Name
    ,                        !- North Axis {deg}
    Suburbs,                 !- Terrain
    0.04,                    !- Loads Convergence Tolerance Value
    0.4,                     !- Temperature Convergence Tolerance Value {deltaC}
    FullExterior,            !- Solar Distribution
    25,                      !- Maximum Number of Warmup Days
    6;                       !- Minimum Number of Warmup Days

!-   ===========  ALL OBJECTS IN CLASS: SHADOWCALCULATION ===========

  ShadowCalculation,
    AverageOverDaysInFrequency,  !- Calculation Method
    20,                      !- Calculation Frequency
    15000;                   !- Maximum Figures in Shadow Overlap Calculations

!-   ===========  ALL OBJECTS IN CLASS: SURFACECONVECTIONALGORITHM:INSIDE ===========

  SurfaceConvectionAlgorithm:Inside,TARP;

!-   ===========  ALL OBJECTS IN CLASS: SURFACECONVECTIONALGORITHM:OUTSIDE ===========

  SurfaceConvectionAlgorithm:Outside,DOE-2;

!-   ===========  ALL OBJECTS IN CLASS: HEATBALANCEALGORITHM ===========

  HeatBalanceAlgorithm,ConductionTransferFunction,200,0.1,1000;

!-   ===========  ALL OBJECTS IN CLASS: TIMESTEP ===========

  Timestep,6;

!-   ===========  ALL OBJECTS IN CLASS: SITE:LOCATION ===========

  Site:Location,
    LONDON/GATWICK_GBR Design_Conditions,  !- Name
    51.15,                   !- Latitude {deg}
    -0.18,                   !- Longitude {deg}
    0.00,                    !- Time Zone {hr}
    62.00;                   !- Elevation {m}

!-   ===========  ALL OBJECTS IN CLASS: RUNPERIOD ===========

  RunPeriod,
    ,                        !- Name
    1,                       !- Begin Month
    1,                       !- Begin Day of Month
    12,                      !- End Month
    31,                      !- End Day of Month
    UseWeatherFile,          !- Day of Week for Start Day
    No,                      !- Use Weather File Holidays and Special Days
    No,                      !- Use Weather File Daylight Saving Period
    No,                      !- Apply Weekend Holiday Rule
    Yes,                     !- Use Weather File Rain Indicators
    Yes,                     !- Use Weather File Snow Indicators
    1;                       !- Number of Times Runperiod to be Repeated

!-   ===========  ALL OBJECTS IN CLASS: RUNPERIODCONTROL:DAYLIGHTSAVINGTIME ===========

  RunPeriodControl:DaylightSavingTime,
    Last Sunday in March,    !- Start Date
    Last Sunday in October;  !- End Date

!-   ===========  ALL OBJECTS IN CLASS: SITE:GROUNDTEMPERATURE:BUILDINGSURFACE ===========

  Site:GroundTemperature:BuildingSurface,18,18,18,18,18,18,18,18,18,18,18,18;

!-   ===========  ALL OBJECTS IN CLASS: SITE:GROUNDREFLECTANCE ===========

  Site:GroundReflectance,0.2,0.2,0.2,0.2,0.2,0.2,0.2,0.2,0.2,0.2,0.2,0.2;

!-   ===========  ALL OBJECTS IN CLASS: SITE:GROUNDREFLECTANCE:SNOWMODIFIER ===========

  Site:GroundReflectance:SnowModifier,
    1,                       !- Ground Reflected Solar Modifier
    1;                       !- Daylighting Ground Reflected Solar Modifier

!-   ===========  ALL OBJECTS IN CLASS: SCHEDULETYPELIMITS ===========

  ScheduleTypeLimits,
    Any Number;              !- Name

  ScheduleTypeLimits,
    Fraction,                !- Name
    0.0,                     !- Lower Limit Value
    1.0,                     !- Upper Limit Value
    Continuous;              !- Numeric Type

  ScheduleTypeLimits,
    Temperature,             !- Name
    -60,                     !- Lower Limit Value
    200,                     !- Upper Limit Value
    Continuous;              !- Numeric Type

  ScheduleTypeLimits,
    On/Off,                  !- Name
    0,                       !- Lower Limit Value
    1,                       !- Upper Limit Value
    Discrete;                !- Numeric Type

  ScheduleTypeLimits,
    Control Type,            !- Name
    0,                       !- Lower Limit Value
    4,                       !- Upper Limit Value
    Discrete;                !- Numeric Type

!-   ===========  ALL OBJECTS IN CLASS: MATERIAL ===========

  Material,
    10mm_carpet,             !- Name
    Rough,                   !- Roughness
    0.01,                    !- Thickness {m}
    0.058,                   !- Conductivity {W/m-K}
    20,                      !- Density {kg/m3}
    1000,                    !- Specific Heat {J/kg-K}
    0.9,                     !- Thermal Absorptance
    0.5,                     !- Solar Absorptance
    0.5;                     !- Visible Absorptance

  Material,
    25mm_gypsum_plasterboard,!- Name
    Rough,                   !- Roughness
    0.025,                   !- Thickness {m}
    0.25,                    !- Conductivity {W/m-K}
    900,                     !- Density {kg/m3}
    1000,                    !- Specific Heat {J/kg-K}
    0.9,                     !- Thermal Absorptance
    0.5,                     !- Solar Absorptance
    0.5;                     !- Visible Absorptance

  Material,
    105mm_brick_outer_leaf,  !- Name
    Rough,                   !- Roughness
    0.105,                   !- Thickness {m}
    0.77,                    !- Conductivity {W/m-K}
    1700,                    !- Density {kg/m3}
    840,                     !- Specific Heat {J/kg-K}
    0.9,                     !- Thermal Absorptance
    0.7,                     !- Solar Absorptance
    0.7;                     !- Visible Absorptance

  Material,
    140mm_min_wool_quilt,    !- Name
    Rough,                   !- Roughness
    0.14,                    !- Thickness {m}
    0.04,                    !- Conductivity {W/m-K}
    12,                      !- Density {kg/m3}
    1030,                    !- Specific Heat {J/kg-K}
    0.9,                     !- Thermal Absorptance
    0.6,                     !- Solar Absorptance
    0.6;                     !- Visible Absorptance

  Material,
    100mm_min_wool_quilt,    !- Name
    Rough,                   !- Roughness
    0.1,                     !- Thickness {m}
    0.04,                    !- Conductivity {W/m-K}
    12,                      !- Density {kg/m3}
    1030,                    !- Specific Heat {J/kg-K}
    0.9,                     !- Thermal Absorptance
    0.6,                     !- Solar Absorptance
    0.6;                     !- Visible Absorptance

  Material,
    75mm_min_wool_quilt,     !- Name
    Rough,                   !- Roughness
    0.075,                   !- Thickness {m}
    0.04,                    !- Conductivity {W/m-K}
    12,                      !- Density {kg/m3}
    1030,                    !- Specific Heat {J/kg-K}
    0.9,                     !- Thermal Absorptance
    0.6,                     !- Solar Absorptance
    0.6;                     !- Visible Absorptance

  Material,
    50mm_min_wool_quilt,     !- Name
    Rough,                   !- Roughness
    0.05,                    !- Thickness {m}
    0.04,                    !- Conductivity {W/m-K}
    12,                      !- Density {kg/m3}
    1030,                    !- Specific Heat {J/kg-K}
    0.9,                     !- Thermal Absorptance
    0.6,                     !- Solar Absorptance
    0.6;                     !- Visible Absorptance

  Material,
    100mm_concrete_1800,     !- Name
    Rough,                   !- Roughness
    0.1,                     !- Thickness {m}
    1.13,                    !- Conductivity {W/m-K}
    1800,                    !- Density {kg/m3}
    1000,                    !- Specific Heat {J/kg-K}
    0.9,                     !- Thermal Absorptance
    0.6,                     !- Solar Absorptance
    0.6;                     !- Visible Absorptance

  Material,
    13mm_plasterboard_wallboard,  !- Name
    Rough,                   !- Roughness
    0.013,                   !- Thickness {m}
    0.21,                    !- Conductivity {W/m-K}
    900,                     !- Density {kg/m3}
    1000,                    !- Specific Heat {J/kg-K}
    0.9,                     !- Thermal Absorptance
    0.6,                     !- Solar Absorptance
    0.6;                     !- Visible Absorptance

  Material,
    25mm_stone_chippings,    !- Name
    Rough,                   !- Roughness
    0.025,                   !- Thickness {m}
    2,                       !- Conductivity {W/m-K}
    2000,                    !- Density {kg/m3}
    1000,                    !- Specific Heat {J/kg-K}
    0.9,                     !- Thermal Absorptance
    0.5,                     !- Solar Absorptance
    0.5;                     !- Visible Absorptance

  Material,
    150mm_concrete_dense,    !- Name
    Rough,                   !- Roughness
    0.15,                    !- Thickness {m}
    1.93,                    !- Conductivity {W/m-K}
    2400,                    !- Density {kg/m3}
    1000,                    !- Specific Heat {J/kg-K}
    0.9,                     !- Thermal Absorptance
    0.6,                     !- Solar Absorptance
    0.6;                     !- Visible Absorptance

  Material,
    40mm_flooring_screed,    !- Name
    Rough,                   !- Roughness
    0.04,                    !- Thickness {m}
    0.41,                    !- Conductivity {W/m-K}
    1200,                    !- Density {kg/m3}
    1000,                    !- Specific Heat {J/kg-K}
    0.9,                     !- Thermal Absorptance
    0.73,                    !- Solar Absorptance
    0.73;                    !- Visible Absorptance

  Material,
    19mm_asphalt,            !- Name
    Rough,                   !- Roughness
    0.019,                   !- Thickness {m}
    0.7,                     !- Conductivity {W/m-K}
    2100,                    !- Density {kg/m3}
    1000,                    !- Specific Heat {J/kg-K}
    0.9,                     !- Thermal Absorptance
    0.85,                    !- Solar Absorptance
    0.85;                    !- Visible Absorptance

  Material,
    240mm_mineral_wool_dense,!- Name
    Rough,                   !- Roughness
    0.24,                    !- Thickness {m}
    0.036,                   !- Conductivity {W/m-K}
    50,                      !- Density {kg/m3}
    1030,                    !- Specific Heat {J/kg-K}
    0.9,                     !- Thermal Absorptance
    0.6,                     !- Solar Absorptance
    0.6;                     !- Visible Absorptance

  Material,
    200mm_mineral_wool_dense,!- Name
    Rough,                   !- Roughness
    0.2,                     !- Thickness {m}
    0.036,                   !- Conductivity {W/m-K}
    50,                      !- Density {kg/m3}
    1030,                    !- Specific Heat {J/kg-K}
    0.9,                     !- Thermal Absorptance
    0.6,                     !- Solar Absorptance
    0.6;                     !- Visible Absorptance

  Material,
    100mm_mineral_wool_dense,!- Name
    Rough,                   !- Roughness
    0.1,                     !- Thickness {m}
    0.036,                   !- Conductivity {W/m-K}
    50,                      !- Density {kg/m3}
    1030,                    !- Specific Heat {J/kg-K}
    0.9,                     !- Thermal Absorptance
    0.6,                     !- Solar Absorptance
    0.6;                     !- Visible Absorptance

  Material,
    70mm_mineral_wool_dense, !- Name
    Rough,                   !- Roughness
    0.07,                    !- Thickness {m}
    0.036,                   !- Conductivity {W/m-K}
    50,                      !- Density {kg/m3}
    1030,                    !- Specific Heat {J/kg-K}
    0.9,                     !- Thermal Absorptance
    0.6,                     !- Solar Absorptance
    0.6;                     !- Visible Absorptance

  Material,
    750mm_clay_underfloor,   !- Name
    Rough,                   !- Roughness
    0.75,                    !- Thickness {m}
    1.5,                     !- Conductivity {W/m-K}
    1500,                    !- Density {kg/m3}
    2085,                    !- Specific Heat {J/kg-K}
    0.9,                     !- Thermal Absorptance
    0.6,                     !- Solar Absorptance
    0.6;                     !- Visible Absorptance

  Material,
    25mm_brick_slips,        !- Name
    Rough,                   !- Roughness
    0.025,                   !- Thickness {m}
    0.77,                    !- Conductivity {W/m-K}
    1700,                    !- Density {kg/m3}
    1000,                    !- Specific Heat {J/kg-K}
    0.9,                     !- Thermal Absorptance
    0.7,                     !- Solar Absorptance
    0.7;                     !- Visible Absorptance

  Material,
    100mm_cast_concrete,     !- Name
    Rough,                   !- Roughness
    0.1,                     !- Thickness {m}
    1.35,                    !- Conductivity {W/m-K}
    2000,                    !- Density {kg/m3}
    1000,                    !- Specific Heat {J/kg-K}
    0.9,                     !- Thermal Absorptance
    0.6,                     !- Solar Absorptance
    0.6;                     !- Visible Absorptance

  Material,
    240mm_eps,               !- Name
    Rough,                   !- Roughness
    0.24,                    !- Thickness {m}
    0.04,                    !- Conductivity {W/m-K}
    15,                      !- Density {kg/m3}
    1300,                    !- Specific Heat {J/kg-K}
    0.9,                     !- Thermal Absorptance
    0.6,                     !- Solar Absorptance
    0.6;                     !- Visible Absorptance

  Material,
    120mm_eps,               !- Name
    Rough,                   !- Roughness
    0.12,                    !- Thickness {m}
    0.04,                    !- Conductivity {W/m-K}
    15,                      !- Density {kg/m3}
    1300,                    !- Specific Heat {J/kg-K}
    0.9,                     !- Thermal Absorptance
    0.6,                     !- Solar Absorptance
    0.6;                     !- Visible Absorptance

  Material,
    80mm_eps,                !- Name
    Rough,                   !- Roughness
    0.08,                    !- Thickness {m}
    0.04,                    !- Conductivity {W/m-K}
    15,                      !- Density {kg/m3}
    1300,                    !- Specific Heat {J/kg-K}
    0.9,                     !- Thermal Absorptance
    0.6,                     !- Solar Absorptance
    0.6;                     !- Visible Absorptance

  Material,
    10mm_eps,                !- Name
    Rough,                   !- Roughness
    0.01,                    !- Thickness {m}
    0.04,                    !- Conductivity {W/m-K}
    15,                      !- Density {kg/m3}
    1300,                    !- Specific Heat {J/kg-K}
    0.9,                     !- Thermal Absorptance
    0.6,                     !- Solar Absorptance
    0.6;                     !- Visible Absorptance

  Material,
    50mm_flooring_screed,    !- Name
    Rough,                   !- Roughness
    0.05,                    !- Thickness {m}
    0.41,                    !- Conductivity {W/m-K}
    1200,                    !- Density {kg/m3}
    1000,                    !- Specific Heat {J/kg-K}
    0.9,                     !- Thermal Absorptance
    0.73,                    !- Solar Absorptance
    0.73;                    !- Visible Absorptance

!-   ===========  ALL OBJECTS IN CLASS: MATERIAL:NOMASS ===========

  Material:NoMass,
    air_layer,               !- Name
    Rough,                   !- Roughness
    0.18,                    !- Thermal Resistance {m2-K/W}
    0.9,                     !- Thermal Absorptance
    0.7,                     !- Solar Absorptance
    0.7;                     !- Visible Absorptance

!-   ===========  ALL OBJECTS IN CLASS: WINDOWMATERIAL:GLAZING ===========

  WindowMaterial:Glazing,
    4mm_clear,               !- Name
    SpectralAverage,         !- Optical Data Type
    ,                        !- Window Glass Spectral Data Set Name
    0.004,                   !- Thickness {m}
    0.816,                   !- Solar Transmittance at Normal Incidence
    0.075,                   !- Front Side Solar Reflectance at Normal Incidence
    0.075,                   !- Back Side Solar Reflectance at Normal Incidence
    0.892,                   !- Visible Transmittance at Normal Incidence
    0.081,                   !- Front Side Visible Reflectance at Normal Incidence
    0.081,                   !- Back Side Visible Reflectance at Normal Incidence
    0,                       !- Infrared Transmittance at Normal Incidence
    0.84,                    !- Front Side Infrared Hemispherical Emissivity
    0.84,                    !- Back Side Infrared Hemispherical Emissivity
    1,                       !- Conductivity {W/m-K}
    1,                       !- Dirt Correction Factor for Solar and Visible Transmittance
    No;                      !- Solar Diffusing

  WindowMaterial:Glazing,
    4mm_low_e_clear,         !- Name
    SpectralAverage,         !- Optical Data Type
    ,                        !- Window Glass Spectral Data Set Name
    0.004,                   !- Thickness {m}
    0.62,                    !- Solar Transmittance at Normal Incidence
    0.075,                   !- Front Side Solar Reflectance at Normal Incidence
    0.075,                   !- Back Side Solar Reflectance at Normal Incidence
    0.847,                   !- Visible Transmittance at Normal Incidence
    0.081,                   !- Front Side Visible Reflectance at Normal Incidence
    0.081,                   !- Back Side Visible Reflectance at Normal Incidence
    0,                       !- Infrared Transmittance at Normal Incidence
    0.84,                    !- Front Side Infrared Hemispherical Emissivity
    0.1,                     !- Back Side Infrared Hemispherical Emissivity
    1,                       !- Conductivity {W/m-K}
    1,                       !- Dirt Correction Factor for Solar and Visible Transmittance
    No;                      !- Solar Diffusing

!-   ===========  ALL OBJECTS IN CLASS: WINDOWMATERIAL:GAS ===========

  WindowMaterial:Gas,
    16mm_air,                !- Name
    Air,                     !- Gas Type
    0.016;                   !- Thickness {m}

!-   ===========  ALL OBJECTS IN CLASS: CONSTRUCTION ===========

  Construction,
    2002_glazing,            !- Name
    4mm_clear,               !- Outside Layer
    16mm_air,                !- Layer 2
    4mm_low_e_clear;         !- Layer 3

  Construction,
    ceiling,                 !- Name
    10mm_carpet,             !- Outside Layer
    100mm_concrete_1800;     !- Layer 2

  Construction,
    floor,                   !- Name
    100mm_concrete_1800,     !- Outside Layer
    10mm_carpet;             !- Layer 2

  Construction,
    2002_wall,               !- Name
    105mm_brick_outer_leaf,  !- Outside Layer
    100mm_min_wool_quilt,    !- Layer 2
    100mm_concrete_1800,     !- Layer 3
    air_layer,               !- Layer 4
    13mm_plasterboard_wallboard;  !- Layer 5

  Construction,
    2002_flat_roof,          !- Name
    25mm_stone_chippings,    !- Outside Layer
    19mm_asphalt,            !- Layer 2
    200mm_mineral_wool_dense,!- Layer 3
    40mm_flooring_screed,    !- Layer 4
    150mm_concrete_dense;    !- Layer 5

  Construction,
    2002_solid_ground_floor, !- Name
    750mm_clay_underfloor,   !- Outside Layer
    25mm_brick_slips,        !- Layer 2
    100mm_cast_concrete,     !- Layer 3
    120mm_eps,               !- Layer 4
    50mm_flooring_screed;    !- Layer 5

!-   ===========  ALL OBJECTS IN CLASS: GLOBALGEOMETRYRULES ===========

  GlobalGeometryRules,
    UpperLeftCorner,         !- Starting Vertex Position
    Counterclockwise,        !- Vertex Entry Direction
    Relative;                !- Coordinate System

!-   ===========  ALL OBJECTS IN CLASS: ZONE ===========

  Zone,
    Zone1,                   !- Name
    0.0,                     !- Direction of Relative North {deg}
    0.0,                     !- X Origin {m}
    0.0,                     !- Y Origin {m}
    0.0,                     !- Z Origin {m}
    1,                       !- Type
    1,                       !- Multiplier
    autocalculate,           !- Ceiling Height {m}
    autocalculate,           !- Volume {m3}
    autocalculate,           !- Floor Area {m2}
    ,                        !- Zone Inside Convection Algorithm
    ,                        !- Zone Outside Convection Algorithm
    Yes;                     !- Part of Total Floor Area

  Zone,
    Zone2,                   !- Name
    0.0,                     !- Direction of Relative North {deg}
    0.0,                     !- X Origin {m}
    0.0,                     !- Y Origin {m}
    0.0,                     !- Z Origin {m}
    1,                       !- Type
    1,                       !- Multiplier
    autocalculate,           !- Ceiling Height {m}
    autocalculate,           !- Volume {m3}
    autocalculate,           !- Floor Area {m2}
    ,                        !- Zone Inside Convection Algorithm
    ,                        !- Zone Outside Convection Algorithm
    Yes;                     !- Part of Total Floor Area

!-   ===========  ALL OBJECTS IN CLASS: BUILDINGSURFACE:DETAILED ===========

  BuildingSurface:Detailed,
    Zone1_Floor,             !- Name
    Floor,                   !- Surface Type
    2002_solid_ground_floor, !- Construction Name
    Zone1,                   !- Zone Name
    Ground,                  !- Outside Boundary Condition
    ,                        !- Outside Boundary Condition Object
    NoSun,                   !- Sun Exposure
    NoWind,                  !- Wind Exposure
    autocalculate,           !- View Factor to Ground
    autocalculate,           !- Number of Vertices
    0,0,0,  !- X,Y,Z ==> Vertex 1 {m}
    -3,9,0,  !- X,Y,Z ==> Vertex 2 {m}
    6,12,0,  !- X,Y,Z ==> Vertex 3 {m}
    7,9,0,  !- X,Y,Z ==> Vertex 4 {m}
    4,8,0,  !- X,Y,Z ==> Vertex 5 {m}
    6,2,0;  !- X,Y,Z ==> Vertex 6 {m}

  BuildingSurface:Detailed,
    Zone1_Ceiling,           !- Name
    Ceiling,                 !- Surface Type
    ceiling,                 !- Construction Name
    Zone1,                   !- Zone Name
    Surface,                 !- Outside Boundary Condition
    Zone2_Floor,             !- Outside Boundary Condition Object
    NoSun,                   !- Sun Exposure
    NoWind,                  !- Wind Exposure
    autocalculate,           !- View Factor to Ground
    autocalculate,           !- Number of Vertices
    6,2,3,  !- X,Y,Z ==> Vertex 1 {m}
    4,8,3,  !- X,Y,Z ==> Vertex 2 {m}
    7,9,3,  !- X,Y,Z ==> Vertex 3 {m}
    6,12,3,  !- X,Y,Z ==> Vertex 4 {m}
    -3,9,3,  !- X,Y,Z ==> Vertex 5 {m}
    0,0,3;  !- X,Y,Z ==> Vertex 6 {m}

  BuildingSurface:Detailed,
    Zone2_Floor,             !- Name
    Floor,                   !- Surface Type
    floor,                   !- Construction Name
    Zone2,                   !- Zone Name
    Surface,                 !- Outside Boundary Condition
    Zone1_Ceiling,           !- Outside Boundary Condition Object
    NoSun,                   !- Sun Exposure
    NoWind,                  !- Wind Exposure
    autocalculate,           !- View Factor to Ground
    autocalculate,           !- Number of Vertices
    0,0,3,  !- X,Y,Z ==> Vertex 1 {m}
    -3,9,3,  !- X,Y,Z ==> Vertex 2 {m}
    6,12,3,  !- X,Y,Z ==> Vertex 3 {m}
    7,9,3,  !- X,Y,Z ==> Vertex 4 {m}
    4,8,3,  !- X,Y,Z ==> Vertex 5 {m}
    6,2,3;  !- X,Y,Z ==> Vertex 6 {m}

  BuildingSurface:Detailed,
    Zone2_Roof,              !- Name
    Roof,                    !- Surface Type
    2002_flat_roof,          !- Construction Name
    Zone2,                   !- Zone Name
    Outdoors,                !- Outside Boundary Condition
    ,                        !- Outside Boundary Condition Object
    SunExposed,              !- Sun Exposure
    WindExposed,             !- Wind Exposure
    autocalculate,           !- View Factor to Ground
    autocalculate,           !- Number of Vertices
    6,2,6,  !- X,Y,Z ==> Vertex 1 {m}
    4,8,6,  !- X,Y,Z ==> Vertex 2 {m}
    7,9,6,  !- X,Y,Z ==> Vertex 3 {m}
    6,12,6,  !- X,Y,Z ==> Vertex 4 {m}
    -3,9,6,  !- X,Y,Z ==> Vertex 5 {m}
    0,0,6;  !- X,Y,Z ==> Vertex 6 {m}

  BuildingSurface:Detailed,
    Zone1_Wall_1,            !- Name
    Wall,                    !- Surface Type
    2002_wall,               !- Construction Name
    Zone1,                   !- Zone Name
    Outdoors,                !- Outside Boundary Condition
    ,                        !- Outside Boundary Condition Object
    SunExposed,              !- Sun Exposure
    WindExposed,             !- Wind Exposure
    autocalculate,           !- View Factor to Ground
    autocalculate,           !- Number of Vertices
    0,0,3,  !- X,Y,Z ==> Vertex 1 {m}
    0,0,0,  !- X,Y,Z ==> Vertex 2 {m}
    6,2,0,  !- X,Y,Z ==> Vertex 3 {m}
    6,2,3;  !- X,Y,Z ==> Vertex 4 {m}

  BuildingSurface:Detailed,
    Zone1_Wall_2,            !- Name
    Wall,                    !- Surface Type
    2002_wall,               !- Construction Name
    Zone1,                   !- Zone Name
    Outdoors,                !- Outside Boundary Condition
    ,                        !- Outside Boundary Condition Object
    SunExposed,              !- Sun Exposure
    WindExposed,             !- Wind Exposure
    autocalculate,           !- View Factor to Ground
    autocalculate,           !- Number of Vertices
    6,2,3,  !- X,Y,Z ==> Vertex 1 {m}
    6,2,0,  !- X,Y,Z ==> Vertex 2 {m}
    4,8,0,  !- X,Y,Z ==> Vertex 3 {m}
    4,8,3;  !- X,Y,Z ==> Vertex 4 {m}

  BuildingSurface:Detailed,
    Zone1_Wall_3,            !- Name
    Wall,                    !- Surface Type
    2002_wall,               !- Construction Name
    Zone1,                   !- Zone Name
    Outdoors,                !- Outside Boundary Condition
    ,                        !- Outside Boundary Condition Object
    SunExposed,              !- Sun Exposure
    WindExposed,             !- Wind Exposure
    autocalculate,           !- View Factor to Ground
    autocalculate,           !- Number of Vertices
    4,8,3,  !- X,Y,Z ==> Vertex 1 {m}
    4,8,0,  !- X,Y,Z ==> Vertex 2 {m}
    7,9,0,  !- X,Y,Z ==> Vertex 3 {m}
    7,9,3;  !- X,Y,Z ==> Vertex 4 {m}

  BuildingSurface:Detailed,
    Zone1_Wall_4,            !- Name
    Wall,                    !- Surface Type
    2002_wall,               !- Construction Name
    Zone1,                   !- Zone Name
    Outdoors,                !- Outside Boundary Condition
    ,                        !- Outside Boundary Condition Object
    SunExposed,              !- Sun Exposure
    WindExposed,             !- Wind Exposure
    autocalculate,           !- View Factor to Ground
    autocalculate,           !- Number of Vertices
    7,9,3,  !- X,Y,Z ==> Vertex 1 {m}
    7,9,0,  !- X,Y,Z ==> Vertex 2 {m}
    6,12,0,  !- X,Y,Z ==> Vertex 3 {m}
    6,12,3;  !- X,Y,Z ==> Vertex 4 {m}

  BuildingSurface:Detailed,
    Zone1_Wall_5,            !- Name
    Wall,                    !- Surface Type
    2002_wall,               !- Construction Name
    Zone1,                   !- Zone Name
    Outdoors,                !- Outside Boundary Condition
    ,                        !- Outside Boundary Condition Object
    SunExposed,              !- Sun Exposure
    WindExposed,             !- Wind Exposure
    autocalculate,           !- View Factor to Ground
    autocalculate,           !- Number of Vertices
    6,12,3,  !- X,Y,Z ==> Vertex 1 {m}
    6,12,0,  !- X,Y,Z ==> Vertex 2 {m}
    -3,9,0,  !- X,Y,Z ==> Vertex 3 {m}
    -3,9,3;  !- X,Y,Z ==> Vertex 4 {m}

  BuildingSurface:Detailed,
    Zone1_Wall_6,            !- Name
    Wall,                    !- Surface Type
    2002_wall,               !- Construction Name
    Zone1,                   !- Zone Name
    Outdoors,                !- Outside Boundary Condition
    ,                        !- Outside Boundary Condition Object
    SunExposed,              !- Sun Exposure
    WindExposed,             !- Wind Exposure
    autocalculate,           !- View Factor to Ground
    autocalculate,           !- Number of Vertices
    -3,9,3,  !- X,Y,Z ==> Vertex 1 {m}
    -3,9,0,  !- X,Y,Z ==> Vertex 2 {m}
    0,0,0,  !- X,Y,Z ==> Vertex 3 {m}
    0,0,3;  !- X,Y,Z ==> Vertex 4 {m}

  BuildingSurface:Detailed,
    Zone2_Wall_1,            !- Name
    Wall,                    !- Surface Type
    2002_wall,               !- Construction Name
    Zone2,                   !- Zone Name
    Outdoors,                !- Outside Boundary Condition
    ,                        !- Outside Boundary Condition Object
    SunExposed,              !- Sun Exposure
    WindExposed,             !- Wind Exposure
    autocalculate,           !- View Factor to Ground
    autocalculate,           !- Number of Vertices
    0,0,6,  !- X,Y,Z ==> Vertex 1 {m}
    0,0,3,  !- X,Y,Z ==> Vertex 2 {m}
    6,2,3,  !- X,Y,Z ==> Vertex 3 {m}
    6,2,6;  !- X,Y,Z ==> Vertex 4 {m}
